47
Exported from Olex2
Cu  7.1580274102 6.6625724243 3.3820427214
F  9.6878143180 2.9750395085 6.1342683276
O  7.7262147306 6.4245739765 5.2339128162
O  4.1047853862 3.8144647598 4.1352867705
O  6.0344804782 4.6690540329 3.6721812608
O  7.8759550647 3.4539869060 -0.5376792708
O  8.6575578326 1.5110650248 -0.0282717960
O  8.2892954408 2.9508469374 1.5345268511
N  6.3156730748 8.4197023134 3.7135525266
N  4.8011453327 4.7981959760 3.8055063897
N  9.1319613004 4.9340737037 4.3193171508
N  6.4851041781 6.9650971515 1.5683180866
N  8.7138543151 5.3904569022 3.0340359246
H  8.4433511377 4.6832718745 2.5114185911
H  9.4008377329 5.8282803958 2.6065246674
N  8.2728872866 2.6354199685 0.3173677745
O  4.2614658698 5.8949580628 3.5582722938
C  5.7548140738 8.9738295845 2.6135282229
C  5.7939826004 8.1143778508 1.4128048108
C  8.5967061069 5.5354567929 5.3733706557
C  9.5466979673 3.9207148563 7.0890577785
C  5.8069099853 10.3809238476 4.9649443939
H  5.8366034370 10.8545039244 5.7879541590
C  5.1995188970 10.2427443754 2.6470496191
H  4.8026258694 10.6184551942 1.8699861220
C  9.0359342465 5.1660185156 6.7352617029
C  8.8651228700 6.1051373694 7.7624416699
H  8.5045748529 6.9603074746 7.5594980101
C  9.2147619245 5.8039458358 9.0703035366
H  9.1147779558 6.4561968505 9.7537328080
C  6.3344579282 9.1025616209 4.8640245079
H  6.7200763726 8.7002463733 5.6333975860
C  6.5788422967 6.0969856166 0.5564208345
H  7.0646888571 5.2902845953 0.6816630507
C  5.2345342909 10.9537673866 3.8376785896
H  4.8682406746 11.8292280192 3.8813189583
C  5.1671269530 8.4155140413 0.2141787857
H  4.6749562303 9.2218056882 0.1134060848
C  9.8704250684 3.5795594694 8.3840286874
H  10.1926195017 2.7107654430 8.5935220822
C  5.9873555797 6.3434344107 -0.6658161265
H  6.0694893717 5.7193538445 -1.3773454780
C  9.7129339562 4.5408349464 9.3759946301
H  9.9480480302 4.3331615705 10.2727073114
C  5.2735276994 7.5142072742 -0.8360969696
H  4.8570112417 7.7016457611 -1.6691030530
H  9.8967157148 4.4637278173 4.3860287769
